
#======================================================================
# CRYSTAL DATA
#----------------------------------------------------------------------
data_VESTA_phase_1

_chemical_name_common                  'OPT_STEP_1'
_cell_length_a                         15.262365
_cell_length_b                         15.262365
_cell_length_c                         15.262365
_cell_angle_alpha                      90.000000
_cell_angle_beta                       90.000000
_cell_angle_gamma                      90.000000
_cell_volume                           3555.212266
_space_group_name_H-M_alt              'P 1'
_space_group_IT_number                 1

loop_
_space_group_symop_operation_xyz
   'x, y, z'

loop_
   _atom_site_label
   _atom_site_occupancy
   _atom_site_fract_x
   _atom_site_fract_y
   _atom_site_fract_z
   _atom_site_adp_type
   _atom_site_U_iso_or_equiv
   _atom_site_type_symbol
   CA1        1.0     0.000000     0.000000     0.000000    Uiso  ? Ca
   CA1        1.0     0.500000     0.000000     0.500000    Uiso  ? Ca
   CA1        1.0     0.000000     0.500000     0.500000    Uiso  ? Ca
   CA1        1.0     0.500000     0.500000     0.000000    Uiso  ? Ca
   CA2        1.0     0.500000     0.500000     0.500000    Uiso  ? Ca
   CA2        1.0     0.000000     0.500000     0.000000    Uiso  ? Ca
   CA2        1.0     0.500000     0.000000     0.000000    Uiso  ? Ca
   CA2        1.0     0.000000     0.000000     0.500000    Uiso  ? Ca
   CA3        1.0     0.254021     0.254021     0.254021    Uiso  ? Ca
   CA3        1.0     0.745979     0.745979     0.745979    Uiso  ? Ca
   CA3        1.0     0.245979     0.745979     0.754021    Uiso  ? Ca
   CA3        1.0     0.754021     0.254021     0.245979    Uiso  ? Ca
   CA3        1.0     0.745979     0.754021     0.245979    Uiso  ? Ca
   CA3        1.0     0.254021     0.245979     0.754021    Uiso  ? Ca
   CA3        1.0     0.754021     0.245979     0.745979    Uiso  ? Ca
   CA3        1.0     0.245979     0.754021     0.254021    Uiso  ? Ca
   CA4        1.0     0.372379     0.372379     0.372379    Uiso  ? Ca
   CA4        1.0     0.627621     0.627621     0.627621    Uiso  ? Ca
   CA4        1.0     0.127621     0.627621     0.872379    Uiso  ? Ca
   CA4        1.0     0.872379     0.372379     0.127621    Uiso  ? Ca
   CA4        1.0     0.627621     0.872379     0.127621    Uiso  ? Ca
   CA4        1.0     0.372379     0.127621     0.872379    Uiso  ? Ca
   CA4        1.0     0.872379     0.127621     0.627621    Uiso  ? Ca
   CA4        1.0     0.127621     0.872379     0.372379    Uiso  ? Ca
   CA5        1.0     0.125895     0.141263     0.377655    Uiso  ? Ca
   CA5        1.0     0.874105     0.858737     0.622345    Uiso  ? Ca
   CA5        1.0     0.374105     0.858737     0.877655    Uiso  ? Ca
   CA5        1.0     0.625895     0.141263     0.122345    Uiso  ? Ca
   CA5        1.0     0.874105     0.641263     0.122345    Uiso  ? Ca
   CA5        1.0     0.125895     0.358737     0.877655    Uiso  ? Ca
   CA5        1.0     0.625895     0.358737     0.622345    Uiso  ? Ca
   CA5        1.0     0.374105     0.641263     0.377655    Uiso  ? Ca
   CA5        1.0     0.377655     0.125895     0.141263    Uiso  ? Ca
   CA5        1.0     0.622345     0.874105     0.858737    Uiso  ? Ca
   CA5        1.0     0.877655     0.374105     0.858737    Uiso  ? Ca
   CA5        1.0     0.122345     0.625895     0.141263    Uiso  ? Ca
   CA5        1.0     0.122345     0.874105     0.641263    Uiso  ? Ca
   CA5        1.0     0.877655     0.125895     0.358737    Uiso  ? Ca
   CA5        1.0     0.622345     0.625895     0.358737    Uiso  ? Ca
   CA5        1.0     0.377655     0.374105     0.641263    Uiso  ? Ca
   CA5        1.0     0.141263     0.377655     0.125895    Uiso  ? Ca
   CA5        1.0     0.858737     0.622345     0.874105    Uiso  ? Ca
   CA5        1.0     0.858737     0.877655     0.374105    Uiso  ? Ca
   CA5        1.0     0.141263     0.122345     0.625895    Uiso  ? Ca
   CA5        1.0     0.641263     0.122345     0.874105    Uiso  ? Ca
   CA5        1.0     0.358737     0.877655     0.125895    Uiso  ? Ca
   CA5        1.0     0.358737     0.622345     0.625895    Uiso  ? Ca
   CA5        1.0     0.641263     0.377655     0.374105    Uiso  ? Ca
   CA6        1.0     0.121014     0.379938     0.380922    Uiso  ? Ca
   CA6        1.0     0.878986     0.620062     0.619078    Uiso  ? Ca
   CA6        1.0     0.378986     0.620062     0.880922    Uiso  ? Ca
   CA6        1.0     0.621014     0.379938     0.119078    Uiso  ? Ca
   CA6        1.0     0.878986     0.879938     0.119078    Uiso  ? Ca
   CA6        1.0     0.121014     0.120062     0.880922    Uiso  ? Ca
   CA6        1.0     0.621014     0.120062     0.619078    Uiso  ? Ca
   CA6        1.0     0.378986     0.879938     0.380922    Uiso  ? Ca
   CA6        1.0     0.380922     0.121014     0.379938    Uiso  ? Ca
   CA6        1.0     0.619078     0.878986     0.620062    Uiso  ? Ca
   CA6        1.0     0.880922     0.378986     0.620062    Uiso  ? Ca
   CA6        1.0     0.119078     0.621014     0.379938    Uiso  ? Ca
   CA6        1.0     0.119078     0.878986     0.879938    Uiso  ? Ca
   CA6        1.0     0.880922     0.121014     0.120062    Uiso  ? Ca
   CA6        1.0     0.619078     0.621014     0.120062    Uiso  ? Ca
   CA6        1.0     0.380922     0.378986     0.879938    Uiso  ? Ca
   CA6        1.0     0.379938     0.380922     0.121014    Uiso  ? Ca
   CA6        1.0     0.620062     0.619078     0.878986    Uiso  ? Ca
   CA6        1.0     0.620062     0.880922     0.378986    Uiso  ? Ca
   CA6        1.0     0.379938     0.119078     0.621014    Uiso  ? Ca
   CA6        1.0     0.879938     0.119078     0.878986    Uiso  ? Ca
   CA6        1.0     0.120062     0.880922     0.121014    Uiso  ? Ca
   CA6        1.0     0.120062     0.619078     0.621014    Uiso  ? Ca
   CA6        1.0     0.879938     0.380922     0.378986    Uiso  ? Ca
   AL7        1.0     0.012172     0.018397     0.252769    Uiso  ? Al
   AL7        1.0     0.987828     0.981603     0.747231    Uiso  ? Al
   AL7        1.0     0.487828     0.981603     0.752769    Uiso  ? Al
   AL7        1.0     0.512172     0.018397     0.247231    Uiso  ? Al
   AL7        1.0     0.987828     0.518397     0.247231    Uiso  ? Al
   AL7        1.0     0.012172     0.481603     0.752769    Uiso  ? Al
   AL7        1.0     0.512172     0.481603     0.747231    Uiso  ? Al
   AL7        1.0     0.487828     0.518397     0.252769    Uiso  ? Al
   AL7        1.0     0.252769     0.012172     0.018397    Uiso  ? Al
   AL7        1.0     0.747231     0.987828     0.981603    Uiso  ? Al
   AL7        1.0     0.752769     0.487828     0.981603    Uiso  ? Al
   AL7        1.0     0.247231     0.512172     0.018397    Uiso  ? Al
   AL7        1.0     0.247231     0.987828     0.518397    Uiso  ? Al
   AL7        1.0     0.752769     0.012172     0.481603    Uiso  ? Al
   AL7        1.0     0.747231     0.512172     0.481603    Uiso  ? Al
   AL7        1.0     0.252769     0.487828     0.518397    Uiso  ? Al
   AL7        1.0     0.018397     0.252769     0.012172    Uiso  ? Al
   AL7        1.0     0.981603     0.747231     0.987828    Uiso  ? Al
   AL7        1.0     0.981603     0.752769     0.487828    Uiso  ? Al
   AL7        1.0     0.018397     0.247231     0.512172    Uiso  ? Al
   AL7        1.0     0.518397     0.247231     0.987828    Uiso  ? Al
   AL7        1.0     0.481603     0.752769     0.012172    Uiso  ? Al
   AL7        1.0     0.481603     0.747231     0.512172    Uiso  ? Al
   AL7        1.0     0.518397     0.252769     0.487828    Uiso  ? Al
   AL8        1.0     0.004422     0.245490     0.232193    Uiso  ? Al
   AL8        1.0     0.995578     0.754510     0.767807    Uiso  ? Al
   AL8        1.0     0.495578     0.754510     0.732193    Uiso  ? Al
   AL8        1.0     0.504422     0.245490     0.267807    Uiso  ? Al
   AL8        1.0     0.995578     0.745490     0.267807    Uiso  ? Al
   AL8        1.0     0.004422     0.254510     0.732193    Uiso  ? Al
   AL8        1.0     0.504422     0.254510     0.767807    Uiso  ? Al
   AL8        1.0     0.495578     0.745490     0.232193    Uiso  ? Al
   AL8        1.0     0.232193     0.004422     0.245490    Uiso  ? Al
   AL8        1.0     0.767807     0.995578     0.754510    Uiso  ? Al
   AL8        1.0     0.732193     0.495578     0.754510    Uiso  ? Al
   AL8        1.0     0.267807     0.504422     0.245490    Uiso  ? Al
   AL8        1.0     0.267807     0.995578     0.745490    Uiso  ? Al
   AL8        1.0     0.732193     0.004422     0.254510    Uiso  ? Al
   AL8        1.0     0.767807     0.504422     0.254510    Uiso  ? Al
   AL8        1.0     0.232193     0.495578     0.745490    Uiso  ? Al
   AL8        1.0     0.245490     0.232193     0.004422    Uiso  ? Al
   AL8        1.0     0.754510     0.767807     0.995578    Uiso  ? Al
   AL8        1.0     0.754510     0.732193     0.495578    Uiso  ? Al
   AL8        1.0     0.245490     0.267807     0.504422    Uiso  ? Al
   AL8        1.0     0.745490     0.267807     0.995578    Uiso  ? Al
   AL8        1.0     0.254510     0.732193     0.004422    Uiso  ? Al
   AL8        1.0     0.254510     0.767807     0.504422    Uiso  ? Al
   AL8        1.0     0.745490     0.232193     0.495578    Uiso  ? Al
   O9         1.0     0.009899     0.286221     0.122955    Uiso  ? O
   O9         1.0     0.990101     0.713779     0.877045    Uiso  ? O
   O9         1.0     0.490101     0.713779     0.622955    Uiso  ? O
   O9         1.0     0.509899     0.286221     0.377045    Uiso  ? O
   O9         1.0     0.990101     0.786221     0.377045    Uiso  ? O
   O9         1.0     0.009899     0.213779     0.622955    Uiso  ? O
   O9         1.0     0.509899     0.213779     0.877045    Uiso  ? O
   O9         1.0     0.490101     0.786221     0.122955    Uiso  ? O
   O9         1.0     0.122955     0.009899     0.286221    Uiso  ? O
   O9         1.0     0.877045     0.990101     0.713779    Uiso  ? O
   O9         1.0     0.622955     0.490101     0.713779    Uiso  ? O
   O9         1.0     0.377045     0.509899     0.286221    Uiso  ? O
   O9         1.0     0.377045     0.990101     0.786221    Uiso  ? O
   O9         1.0     0.622955     0.009899     0.213779    Uiso  ? O
   O9         1.0     0.877045     0.509899     0.213779    Uiso  ? O
   O9         1.0     0.122955     0.490101     0.786221    Uiso  ? O
   O9         1.0     0.286221     0.122955     0.009899    Uiso  ? O
   O9         1.0     0.713779     0.877045     0.990101    Uiso  ? O
   O9         1.0     0.713779     0.622955     0.490101    Uiso  ? O
   O9         1.0     0.286221     0.377045     0.509899    Uiso  ? O
   O9         1.0     0.786221     0.377045     0.990101    Uiso  ? O
   O9         1.0     0.213779     0.622955     0.009899    Uiso  ? O
   O9         1.0     0.213779     0.877045     0.509899    Uiso  ? O
   O9         1.0     0.786221     0.122955     0.490101    Uiso  ? O
   O10        1.0     0.131064     0.259875     0.483101    Uiso  ? O
   O10        1.0     0.868936     0.740125     0.516899    Uiso  ? O
   O10        1.0     0.368936     0.740125     0.983101    Uiso  ? O
   O10        1.0     0.631064     0.259875     0.016899    Uiso  ? O
   O10        1.0     0.868936     0.759875     0.016899    Uiso  ? O
   O10        1.0     0.131064     0.240125     0.983101    Uiso  ? O
   O10        1.0     0.631064     0.240125     0.516899    Uiso  ? O
   O10        1.0     0.368936     0.759875     0.483101    Uiso  ? O
   O10        1.0     0.483101     0.131064     0.259875    Uiso  ? O
   O10        1.0     0.516899     0.868936     0.740125    Uiso  ? O
   O10        1.0     0.983101     0.368936     0.740125    Uiso  ? O
   O10        1.0     0.016899     0.631064     0.259875    Uiso  ? O
   O10        1.0     0.016899     0.868936     0.759875    Uiso  ? O
   O10        1.0     0.983101     0.131064     0.240125    Uiso  ? O
   O10        1.0     0.516899     0.631064     0.240125    Uiso  ? O
   O10        1.0     0.483101     0.368936     0.759875    Uiso  ? O
   O10        1.0     0.259875     0.483101     0.131064    Uiso  ? O
   O10        1.0     0.740125     0.516899     0.868936    Uiso  ? O
   O10        1.0     0.740125     0.983101     0.368936    Uiso  ? O
   O10        1.0     0.259875     0.016899     0.631064    Uiso  ? O
   O10        1.0     0.759875     0.016899     0.868936    Uiso  ? O
   O10        1.0     0.240125     0.983101     0.131064    Uiso  ? O
   O10        1.0     0.240125     0.516899     0.631064    Uiso  ? O
   O10        1.0     0.759875     0.483101     0.368936    Uiso  ? O
   O11        1.0     0.105423     0.265156     0.282938    Uiso  ? O
   O11        1.0     0.894577     0.734844     0.717062    Uiso  ? O
   O11        1.0     0.394577     0.734844     0.782938    Uiso  ? O
   O11        1.0     0.605423     0.265156     0.217062    Uiso  ? O
   O11        1.0     0.894577     0.765156     0.217062    Uiso  ? O
   O11        1.0     0.105423     0.234844     0.782938    Uiso  ? O
   O11        1.0     0.605423     0.234844     0.717062    Uiso  ? O
   O11        1.0     0.394577     0.765156     0.282938    Uiso  ? O
   O11        1.0     0.282938     0.105423     0.265156    Uiso  ? O
   O11        1.0     0.717062     0.894577     0.734844    Uiso  ? O
   O11        1.0     0.782938     0.394577     0.734844    Uiso  ? O
   O11        1.0     0.217062     0.605423     0.265156    Uiso  ? O
   O11        1.0     0.217062     0.894577     0.765156    Uiso  ? O
   O11        1.0     0.782938     0.105423     0.234844    Uiso  ? O
   O11        1.0     0.717062     0.605423     0.234844    Uiso  ? O
   O11        1.0     0.282938     0.394577     0.765156    Uiso  ? O
   O11        1.0     0.265156     0.282938     0.105423    Uiso  ? O
   O11        1.0     0.734844     0.717062     0.894577    Uiso  ? O
   O11        1.0     0.734844     0.782938     0.394577    Uiso  ? O
   O11        1.0     0.265156     0.217062     0.605423    Uiso  ? O
   O11        1.0     0.765156     0.217062     0.894577    Uiso  ? O
   O11        1.0     0.234844     0.782938     0.105423    Uiso  ? O
   O11        1.0     0.234844     0.717062     0.605423    Uiso  ? O
   O11        1.0     0.765156     0.282938     0.394577    Uiso  ? O
   O12        1.0     0.235563     0.402824     0.291013    Uiso  ? O
   O12        1.0     0.764437     0.597176     0.708987    Uiso  ? O
   O12        1.0     0.264437     0.597176     0.791013    Uiso  ? O
   O12        1.0     0.735563     0.402824     0.208987    Uiso  ? O
   O12        1.0     0.764437     0.902824     0.208987    Uiso  ? O
   O12        1.0     0.235563     0.097176     0.791013    Uiso  ? O
   O12        1.0     0.735563     0.097176     0.708987    Uiso  ? O
   O12        1.0     0.264437     0.902824     0.291013    Uiso  ? O
   O12        1.0     0.291013     0.235563     0.402824    Uiso  ? O
   O12        1.0     0.708987     0.764437     0.597176    Uiso  ? O
   O12        1.0     0.791013     0.264437     0.597176    Uiso  ? O
   O12        1.0     0.208987     0.735563     0.402824    Uiso  ? O
   O12        1.0     0.208987     0.764437     0.902824    Uiso  ? O
   O12        1.0     0.791013     0.235563     0.097176    Uiso  ? O
   O12        1.0     0.708987     0.735563     0.097176    Uiso  ? O
   O12        1.0     0.291013     0.264437     0.902824    Uiso  ? O
   O12        1.0     0.402824     0.291013     0.235563    Uiso  ? O
   O12        1.0     0.597176     0.708987     0.764437    Uiso  ? O
   O12        1.0     0.597176     0.791013     0.264437    Uiso  ? O
   O12        1.0     0.402824     0.208987     0.735563    Uiso  ? O
   O12        1.0     0.902824     0.208987     0.764437    Uiso  ? O
   O12        1.0     0.097176     0.791013     0.235563    Uiso  ? O
   O12        1.0     0.097176     0.708987     0.735563    Uiso  ? O
   O12        1.0     0.902824     0.291013     0.264437    Uiso  ? O
   O13        1.0     0.044770     0.486645     0.151262    Uiso  ? O
   O13        1.0     0.955230     0.513355     0.848738    Uiso  ? O
   O13        1.0     0.455230     0.513355     0.651262    Uiso  ? O
   O13        1.0     0.544770     0.486645     0.348738    Uiso  ? O
   O13        1.0     0.955230     0.986645     0.348738    Uiso  ? O
   O13        1.0     0.044770     0.013355     0.651262    Uiso  ? O
   O13        1.0     0.544770     0.013355     0.848738    Uiso  ? O
   O13        1.0     0.455230     0.986645     0.151262    Uiso  ? O
   O13        1.0     0.151262     0.044770     0.486645    Uiso  ? O
   O13        1.0     0.848738     0.955230     0.513355    Uiso  ? O
   O13        1.0     0.651262     0.455230     0.513355    Uiso  ? O
   O13        1.0     0.348738     0.544770     0.486645    Uiso  ? O
   O13        1.0     0.348738     0.955230     0.986645    Uiso  ? O
   O13        1.0     0.651262     0.044770     0.013355    Uiso  ? O
   O13        1.0     0.848738     0.544770     0.013355    Uiso  ? O
   O13        1.0     0.151262     0.455230     0.986645    Uiso  ? O
   O13        1.0     0.486645     0.151262     0.044770    Uiso  ? O
   O13        1.0     0.513355     0.848738     0.955230    Uiso  ? O
   O13        1.0     0.513355     0.651262     0.455230    Uiso  ? O
   O13        1.0     0.486645     0.348738     0.544770    Uiso  ? O
   O13        1.0     0.986645     0.348738     0.955230    Uiso  ? O
   O13        1.0     0.013355     0.651262     0.044770    Uiso  ? O
   O13        1.0     0.013355     0.848738     0.544770    Uiso  ? O
   O13        1.0     0.986645     0.151262     0.455230    Uiso  ? O
   O14        1.0     0.005906     0.469955     0.349364    Uiso  ? O
   O14        1.0     0.994094     0.530045     0.650636    Uiso  ? O
   O14        1.0     0.494094     0.530045     0.849364    Uiso  ? O
   O14        1.0     0.505906     0.469955     0.150636    Uiso  ? O
   O14        1.0     0.994094     0.969955     0.150636    Uiso  ? O
   O14        1.0     0.005906     0.030045     0.849364    Uiso  ? O
   O14        1.0     0.505906     0.030045     0.650636    Uiso  ? O
   O14        1.0     0.494094     0.969955     0.349364    Uiso  ? O
   O14        1.0     0.349364     0.005906     0.469955    Uiso  ? O
   O14        1.0     0.650636     0.994094     0.530045    Uiso  ? O
   O14        1.0     0.849364     0.494094     0.530045    Uiso  ? O
   O14        1.0     0.150636     0.505906     0.469955    Uiso  ? O
   O14        1.0     0.150636     0.994094     0.969955    Uiso  ? O
   O14        1.0     0.849364     0.005906     0.030045    Uiso  ? O
   O14        1.0     0.650636     0.505906     0.030045    Uiso  ? O
   O14        1.0     0.349364     0.494094     0.969955    Uiso  ? O
   O14        1.0     0.469955     0.349364     0.005906    Uiso  ? O
   O14        1.0     0.530045     0.650636     0.994094    Uiso  ? O
   O14        1.0     0.530045     0.849364     0.494094    Uiso  ? O
   O14        1.0     0.469955     0.150636     0.505906    Uiso  ? O
   O14        1.0     0.969955     0.150636     0.994094    Uiso  ? O
   O14        1.0     0.030045     0.849364     0.005906    Uiso  ? O
   O14        1.0     0.030045     0.650636     0.505906    Uiso  ? O
   O14        1.0     0.969955     0.349364     0.494094    Uiso  ? O
