
#======================================================================
# CRYSTAL DATA
#----------------------------------------------------------------------
data_VESTA_phase_1

_chemical_name_common                  'OPT_STEP_1'
_cell_length_a                         11.619192
_cell_length_b                         14.243739
_cell_length_c                         13.653522
_cell_angle_alpha                      104.875900
_cell_angle_beta                       94.872643
_cell_angle_gamma                      90.040932
_cell_volume                           2175.445286
_space_group_name_H-M_alt              'P 1'
_space_group_IT_number                 1

loop_
_space_group_symop_operation_xyz
   'x, y, z'

loop_
   _atom_site_label
   _atom_site_occupancy
   _atom_site_fract_x
   _atom_site_fract_y
   _atom_site_fract_z
   _atom_site_adp_type
   _atom_site_U_iso_or_equiv
   _atom_site_type_symbol
   CA1        1.0     0.707881     0.002623     0.971871    Uiso  ? Ca
   CA1        1.0     0.292119     0.997377     0.028129    Uiso  ? Ca
   CA2        1.0     0.354033     0.151717     0.650035    Uiso  ? Ca
   CA2        1.0     0.645967     0.848283     0.349965    Uiso  ? Ca
   CA3        1.0     0.678386     0.322577     0.333437    Uiso  ? Ca
   CA3        1.0     0.321614     0.677423     0.666563    Uiso  ? Ca
   CA4        1.0     0.846669     0.164759     0.169129    Uiso  ? Ca
   CA4        1.0     0.153331     0.835241     0.830871    Uiso  ? Ca
   CA5        1.0     0.192244     0.327435     0.815371    Uiso  ? Ca
   CA5        1.0     0.807756     0.672565     0.184629    Uiso  ? Ca
   CA6        1.0     0.333496     0.408845     0.648093    Uiso  ? Ca
   CA6        1.0     0.666504     0.591155     0.351907    Uiso  ? Ca
   CA7        1.0     0.647220     0.083507     0.333310    Uiso  ? Ca
   CA7        1.0     0.352780     0.916493     0.666690    Uiso  ? Ca
   CA8        1.0     0.056066     0.166099     0.618341    Uiso  ? Ca
   CA8        1.0     0.943934     0.833901     0.381659    Uiso  ? Ca
   CA9        1.0     0.644711     0.181354     0.723306    Uiso  ? Ca
   CA9        1.0     0.355289     0.818646     0.276694    Uiso  ? Ca
   CA10       1.0     0.382847     0.347038     0.303419    Uiso  ? Ca
   CA10       1.0     0.617153     0.652962     0.696581    Uiso  ? Ca
   CA11       1.0     0.967986     0.335312     0.368128    Uiso  ? Ca
   CA11       1.0     0.032014     0.664688     0.631872    Uiso  ? Ca
   CA12       1.0     0.049040     0.396291     0.623087    Uiso  ? Ca
   CA12       1.0     0.950960     0.603709     0.376913    Uiso  ? Ca
   CA13       1.0     0.358693     0.052517     0.288441    Uiso  ? Ca
   CA13       1.0     0.641307     0.947483     0.711559    Uiso  ? Ca
   CA14       1.0     0.620952     0.415033     0.713883    Uiso  ? Ca
   CA14       1.0     0.379048     0.584967     0.286117    Uiso  ? Ca
   CA15       1.0     0.968459     0.103358     0.374655    Uiso  ? Ca
   CA15       1.0     0.031541     0.896642     0.625345    Uiso  ? Ca
   CA16       1.0     0.466391     0.094131     0.851443    Uiso  ? Ca
   CA16       1.0     0.533609     0.905869     0.148557    Uiso  ? Ca
   CA17       1.0     0.213641     0.241120     0.463618    Uiso  ? Ca
   CA17       1.0     0.786359     0.758880     0.536382    Uiso  ? Ca
   CA18       1.0     0.808738     0.246121     0.515768    Uiso  ? Ca
   CA18       1.0     0.191262     0.753879     0.484232    Uiso  ? Ca
   CA19       1.0     0.538931     0.414463     0.151778    Uiso  ? Ca
   CA19       1.0     0.461069     0.585537     0.848222    Uiso  ? Ca
   CA20       1.0     0.701267     0.488202     0.959528    Uiso  ? Ca
   CA20       1.0     0.298733     0.511798     0.040472    Uiso  ? Ca
   CA21       1.0     0.727732     0.236746     0.969978    Uiso  ? Ca
   CA21       1.0     0.272268     0.763254     0.030022    Uiso  ? Ca
   CA22       1.0     0.304694     0.278012     0.023837    Uiso  ? Ca
   CA22       1.0     0.695306     0.721988     0.976163    Uiso  ? Ca
   CA23       1.0     0.874649     0.081317     0.817651    Uiso  ? Ca
   CA23       1.0     0.125351     0.918683     0.182349    Uiso  ? Ca
   CA24       1.0     0.140017     0.426451     0.186527    Uiso  ? Ca
   CA24       1.0     0.859983     0.573549     0.813473    Uiso  ? Ca
   CA25       1.0     0.020693     0.261499     0.990409    Uiso  ? Ca
   CA25       1.0     0.979307     0.738501     0.009591    Uiso  ? Ca
   CA26       1.0     0.000000     0.000000     0.000000    Uiso  ? Ca
   CA27       1.0     0.000000     0.500000     0.000000    Uiso  ? Ca
   CA28       1.0     0.500000     0.000000     0.500000    Uiso  ? Ca
   CA29       1.0     0.500000     0.500000     0.500000    Uiso  ? Ca
   SI30       1.0     0.829826     0.416517     0.165349    Uiso  ? Si
   SI30       1.0     0.170174     0.583483     0.834651    Uiso  ? Si
   SI31       1.0     0.474102     0.343935     0.871799    Uiso  ? Si
   SI31       1.0     0.525898     0.656065     0.128201    Uiso  ? Si
   SI32       1.0     0.160701     0.078809     0.817920    Uiso  ? Si
   SI32       1.0     0.839299     0.921191     0.182080    Uiso  ? Si
   SI33       1.0     0.800277     0.019458     0.546361    Uiso  ? Si
   SI33       1.0     0.199723     0.980542     0.453639    Uiso  ? Si
   SI34       1.0     0.191210     0.497630     0.448659    Uiso  ? Si
   SI34       1.0     0.808790     0.502370     0.551341    Uiso  ? Si
   SI35       1.0     0.523953     0.155517     0.121650    Uiso  ? Si
   SI35       1.0     0.476047     0.844483     0.878350    Uiso  ? Si
   SI36       1.0     0.153574     0.181487     0.204535    Uiso  ? Si
   SI36       1.0     0.846426     0.818513     0.795465    Uiso  ? Si
   SI37       1.0     0.874221     0.321567     0.782407    Uiso  ? Si
   SI37       1.0     0.125779     0.678433     0.217593    Uiso  ? Si
   SI38       1.0     0.492547     0.247333     0.504002    Uiso  ? Si
   SI38       1.0     0.507453     0.752667     0.495998    Uiso  ? Si
   O39        1.0     0.033907     0.194853     0.263679    Uiso  ? O
   O39        1.0     0.966093     0.805147     0.736321    Uiso  ? O
   O40        1.0     0.514373     0.266941     0.194614    Uiso  ? O
   O40        1.0     0.485627     0.733059     0.805386    Uiso  ? O
   O41        1.0     0.654419     0.146618     0.079884    Uiso  ? O
   O41        1.0     0.345581     0.853382     0.920116    Uiso  ? O
   O42        1.0     0.157455     0.065764     0.138900    Uiso  ? O
   O42        1.0     0.842545     0.934236     0.861100    Uiso  ? O
   O43        1.0     0.223334     0.269061     0.642751    Uiso  ? O
   O43        1.0     0.776666     0.730939     0.357249    Uiso  ? O
   O44        1.0     0.506127     0.056832     0.675792    Uiso  ? O
   O44        1.0     0.493873     0.943168     0.324208    Uiso  ? O
   O45        1.0     0.419361     0.132937     0.024666    Uiso  ? O
   O45        1.0     0.580639     0.867063     0.975334    Uiso  ? O
   O46        1.0     0.265433     0.206721     0.292357    Uiso  ? O
   O46        1.0     0.734567     0.793279     0.707643    Uiso  ? O
   O47        1.0     0.667929     0.095379     0.856073    Uiso  ? O
   O47        1.0     0.332071     0.904621     0.143927    Uiso  ? O
   O48        1.0     0.008720     0.258855     0.494066    Uiso  ? O
   O48        1.0     0.991280     0.741145     0.505934    Uiso  ? O
   O49        1.0     0.507678     0.075260     0.188651    Uiso  ? O
   O49        1.0     0.492322     0.924740     0.811349    Uiso  ? O
   O50        1.0     0.159776     0.256662     0.130173    Uiso  ? O
   O50        1.0     0.840224     0.743338     0.869827    Uiso  ? O
   O51        1.0     0.824981     0.394959     0.472235    Uiso  ? O
   O51        1.0     0.175019     0.605041     0.527765    Uiso  ? O
   O52        1.0     0.315629     0.498749     0.398318    Uiso  ? O
   O52        1.0     0.684371     0.501251     0.601682    Uiso  ? O
   O53        1.0     0.182046     0.412407     0.510130    Uiso  ? O
   O53        1.0     0.817954     0.587593     0.489870    Uiso  ? O
   O54        1.0     0.337486     0.430510     0.175436    Uiso  ? O
   O54        1.0     0.662514     0.569490     0.824564    Uiso  ? O
   O55        1.0     0.158617     0.391809     0.984114    Uiso  ? O
   O55        1.0     0.841383     0.608191     0.015886    Uiso  ? O
   O56        1.0     0.082131     0.472513     0.355182    Uiso  ? O
   O56        1.0     0.917869     0.527487     0.644818    Uiso  ? O
   O57        1.0     0.280073     0.056982     0.759977    Uiso  ? O
   O57        1.0     0.719927     0.943018     0.240023    Uiso  ? O
   O58        1.0     0.949031     0.401412     0.104015    Uiso  ? O
   O58        1.0     0.050969     0.598588     0.895985    Uiso  ? O
   O59        1.0     0.160741     0.192856     0.886385    Uiso  ? O
   O59        1.0     0.839259     0.807144     0.113615    Uiso  ? O
   O60        1.0     0.146905     0.005979     0.893848    Uiso  ? O
   O60        1.0     0.853095     0.994021     0.106152    Uiso  ? O
   O61        1.0     0.801733     0.181273     0.333641    Uiso  ? O
   O61        1.0     0.198267     0.818727     0.666359    Uiso  ? O
   O62        1.0     0.897623     0.140716     0.001011    Uiso  ? O
   O62        1.0     0.102377     0.859284     0.998989    Uiso  ? O
   O63        1.0     0.557736     0.452147     0.338471    Uiso  ? O
   O63        1.0     0.442264     0.547853     0.661529    Uiso  ? O
   O64        1.0     0.046820     0.058757     0.730552    Uiso  ? O
   O64        1.0     0.953180     0.941243     0.269448    Uiso  ? O
   O65        1.0     0.611877     0.239276     0.445634    Uiso  ? O
   O65        1.0     0.388123     0.760724     0.554366    Uiso  ? O
   O66        1.0     0.767673     0.053018     0.665532    Uiso  ? O
   O66        1.0     0.232327     0.946982     0.334468    Uiso  ? O
   O67        1.0     0.443197     0.390265     0.990734    Uiso  ? O
   O67        1.0     0.556803     0.609735     0.009266    Uiso  ? O
   O68        1.0     0.614585     0.324697     0.862878    Uiso  ? O
   O68        1.0     0.385415     0.675303     0.137122    Uiso  ? O
   O69        1.0     0.001024     0.307684     0.734658    Uiso  ? O
   O69        1.0     0.998976     0.692316     0.265342    Uiso  ? O
   O70        1.0     0.685318     0.020073     0.467958    Uiso  ? O
   O70        1.0     0.314682     0.979927     0.532042    Uiso  ? O
   O71        1.0     0.862318     0.244811     0.853398    Uiso  ? O
   O71        1.0     0.137682     0.755189     0.146602    Uiso  ? O
   O72        1.0     0.716628     0.394224     0.078756    Uiso  ? O
   O72        1.0     0.283372     0.605776     0.921244    Uiso  ? O
   O73        1.0     0.770845     0.301013     0.686623    Uiso  ? O
   O73        1.0     0.229155     0.698987     0.313377    Uiso  ? O
   O74        1.0     0.892529     0.097869     0.525105    Uiso  ? O
   O74        1.0     0.107471     0.902131     0.474895    Uiso  ? O
   O75        1.0     0.860671     0.431172     0.858075    Uiso  ? O
   O75        1.0     0.139329     0.568828     0.141925    Uiso  ? O
   O76        1.0     0.413558     0.144978     0.463579    Uiso  ? O
   O76        1.0     0.586442     0.855022     0.536421    Uiso  ? O
   O77        1.0     0.146441     0.090279     0.472917    Uiso  ? O
   O77        1.0     0.853559     0.909721     0.527083    Uiso  ? O
   O78        1.0     0.826682     0.334495     0.231997    Uiso  ? O
   O78        1.0     0.173318     0.665505     0.768003    Uiso  ? O
   O79        1.0     0.395446     0.242975     0.830984    Uiso  ? O
   O79        1.0     0.604554     0.757025     0.169016    Uiso  ? O
   O80        1.0     0.515438     0.267654     0.629434    Uiso  ? O
   O80        1.0     0.484562     0.732346     0.370566    Uiso  ? O
   O81        1.0     0.415908     0.339814     0.482261    Uiso  ? O
   O81        1.0     0.584092     0.660186     0.517739    Uiso  ? O
   O82        1.0     0.180738     0.473629     0.758257    Uiso  ? O
   O82        1.0     0.819262     0.526371     0.241743    Uiso  ? O
   O83        1.0     0.439790     0.421720     0.803594    Uiso  ? O
   O83        1.0     0.560210     0.578280     0.196406    Uiso  ? O
