
#======================================================================
# CRYSTAL DATA
#----------------------------------------------------------------------
data_VESTA_phase_1

_chemical_name_common                  'OPT_STEP_1'
_cell_length_a                         27.767355
_cell_length_b                         7.115150
_cell_length_c                         12.352568
_cell_angle_alpha                      90.000000
_cell_angle_beta                       116.482452
_cell_angle_gamma                      90.000000
_cell_volume                           2184.405625
_space_group_name_H-M_alt              'P 1'
_space_group_IT_number                 1

loop_
_space_group_symop_operation_xyz
   'x, y, z'

loop_
   _atom_site_label
   _atom_site_occupancy
   _atom_site_fract_x
   _atom_site_fract_y
   _atom_site_fract_z
   _atom_site_adp_type
   _atom_site_U_iso_or_equiv
   _atom_site_type_symbol
   CA1        1.0     0.988851     0.013207     0.501268    Uiso  ? Ca
   CA1        1.0     0.988851     0.986793     0.001268    Uiso  ? Ca
   CA2        1.0     0.881986     0.236433     0.952680    Uiso  ? Ca
   CA2        1.0     0.881986     0.763567     0.452680    Uiso  ? Ca
   CA3        1.0     0.015327     0.240106     0.782513    Uiso  ? Ca
   CA3        1.0     0.015327     0.759894     0.282513    Uiso  ? Ca
   CA4        1.0     0.097257     0.225940     0.515349    Uiso  ? Ca
   CA4        1.0     0.097257     0.774060     0.015349    Uiso  ? Ca
   CA5        1.0     0.220674     0.249059     0.947250    Uiso  ? Ca
   CA5        1.0     0.220674     0.750941     0.447250    Uiso  ? Ca
   CA6        1.0     0.340678     0.247677     0.758986    Uiso  ? Ca
   CA6        1.0     0.340678     0.752323     0.258986    Uiso  ? Ca
   CA7        1.0     0.447223     0.248364     0.543147    Uiso  ? Ca
   CA7        1.0     0.447223     0.751636     0.043147    Uiso  ? Ca
   CA8        1.0     0.558760     0.249621     0.957387    Uiso  ? Ca
   CA8        1.0     0.558760     0.750379     0.457387    Uiso  ? Ca
   CA9        1.0     0.674447     0.246539     0.754871    Uiso  ? Ca
   CA9        1.0     0.674447     0.753461     0.254871    Uiso  ? Ca
   CA10       1.0     0.772064     0.250239     0.533990    Uiso  ? Ca
   CA10       1.0     0.772064     0.749761     0.033990    Uiso  ? Ca
   CA11       1.0     0.992513     0.504949     0.012551    Uiso  ? Ca
   CA11       1.0     0.992513     0.495051     0.512551    Uiso  ? Ca
   CA12       1.0     0.896148     0.010589     0.724648    Uiso  ? Ca
   CA12       1.0     0.896148     0.989411     0.224648    Uiso  ? Ca
   CA13       1.0     0.776169     0.524100     0.260843    Uiso  ? Ca
   CA13       1.0     0.776169     0.475900     0.760843    Uiso  ? Ca
   CA14       1.0     0.897402     0.472037     0.737885    Uiso  ? Ca
   CA14       1.0     0.897402     0.527963     0.237885    Uiso  ? Ca
   CA15       1.0     0.110445     0.522711     0.253796    Uiso  ? Ca
   CA15       1.0     0.110445     0.477289     0.753796    Uiso  ? Ca
   CA16       1.0     0.226526     0.524839     0.225934    Uiso  ? Ca
   CA16       1.0     0.226526     0.475161     0.725934    Uiso  ? Ca
   CA17       1.0     0.335311     0.499531     0.004521    Uiso  ? Ca
   CA17       1.0     0.335311     0.500469     0.504521    Uiso  ? Ca
   CA18       1.0     0.668283     0.488783     0.507443    Uiso  ? Ca
   CA18       1.0     0.668283     0.511217     0.007443    Uiso  ? Ca
   CA19       1.0     0.562498     0.476674     0.732250    Uiso  ? Ca
   CA19       1.0     0.562498     0.523326     0.232250    Uiso  ? Ca
   CA20       1.0     0.449599     0.522022     0.269037    Uiso  ? Ca
   CA20       1.0     0.449599     0.477978     0.769037    Uiso  ? Ca
   CA21       1.0     0.113640     0.003107     0.261900    Uiso  ? Ca
   CA21       1.0     0.113640     0.996893     0.761900    Uiso  ? Ca
   CA22       1.0     0.226225     0.011277     0.726056    Uiso  ? Ca
   CA22       1.0     0.226225     0.988723     0.226056    Uiso  ? Ca
   CA23       1.0     0.333431     0.003177     0.502794    Uiso  ? Ca
   CA23       1.0     0.333431     0.996823     0.002794    Uiso  ? Ca
   CA24       1.0     0.669574     0.006001     0.508171    Uiso  ? Ca
   CA24       1.0     0.669574     0.993999     0.008171    Uiso  ? Ca
   CA25       1.0     0.449285     0.978624     0.268068    Uiso  ? Ca
   CA25       1.0     0.449285     0.021376     0.768068    Uiso  ? Ca
   CA26       1.0     0.562913     0.022075     0.733321    Uiso  ? Ca
   CA26       1.0     0.562913     0.977925     0.233321    Uiso  ? Ca
   CA27       1.0     0.777593     0.987163     0.262245    Uiso  ? Ca
   CA27       1.0     0.777593     0.012837     0.762245    Uiso  ? Ca
   SI28       1.0     0.999285     0.238527     0.251822    Uiso  ? Si
   SI28       1.0     0.999285     0.761473     0.751822    Uiso  ? Si
   SI29       1.0     0.217540     0.256765     0.465971    Uiso  ? Si
   SI29       1.0     0.217540     0.743235     0.965971    Uiso  ? Si
   SI30       1.0     0.112623     0.265942     0.041049    Uiso  ? Si
   SI30       1.0     0.112623     0.734058     0.541049    Uiso  ? Si
   SI31       1.0     0.332178     0.250942     0.244221    Uiso  ? Si
   SI31       1.0     0.332178     0.749058     0.744221    Uiso  ? Si
   SI32       1.0     0.550594     0.249329     0.465531    Uiso  ? Si
   SI32       1.0     0.550594     0.750671     0.965531    Uiso  ? Si
   SI33       1.0     0.450146     0.249797     0.030995    Uiso  ? Si
   SI33       1.0     0.450146     0.750203     0.530995    Uiso  ? Si
   SI34       1.0     0.659765     0.251793     0.242651    Uiso  ? Si
   SI34       1.0     0.659765     0.748207     0.742651    Uiso  ? Si
   SI35       1.0     0.873736     0.259344     0.456185    Uiso  ? Si
   SI35       1.0     0.873736     0.740656     0.956185    Uiso  ? Si
   SI36       1.0     0.787434     0.253658     0.035437    Uiso  ? Si
   SI36       1.0     0.787434     0.746342     0.535437    Uiso  ? Si
   O37        1.0     0.042472     0.233474     0.633175    Uiso  ? O
   O37        1.0     0.042472     0.766526     0.133175    Uiso  ? O
   O38        1.0     0.956303     0.142915     0.123168    Uiso  ? O
   O38        1.0     0.956303     0.857085     0.623168    Uiso  ? O
   O39        1.0     0.021910     0.439953     0.224725    Uiso  ? O
   O39        1.0     0.021910     0.560047     0.724725    Uiso  ? O
   O40        1.0     0.970755     0.273347     0.343845    Uiso  ? O
   O40        1.0     0.970755     0.726653     0.843845    Uiso  ? O
   O41        1.0     0.047344     0.081463     0.317874    Uiso  ? O
   O41        1.0     0.047344     0.918537     0.817874    Uiso  ? O
   O42        1.0     0.151205     0.272087     0.412064    Uiso  ? O
   O42        1.0     0.151205     0.727913     0.912064    Uiso  ? O
   O43        1.0     0.240968     0.443299     0.424068    Uiso  ? O
   O43        1.0     0.240968     0.556701     0.924068    Uiso  ? O
   O44        1.0     0.247925     0.246155     0.615809    Uiso  ? O
   O44        1.0     0.247925     0.753845     0.115809    Uiso  ? O
   O45        1.0     0.234299     0.061684     0.417248    Uiso  ? O
   O45        1.0     0.234299     0.938316     0.917248    Uiso  ? O
   O46        1.0     0.077047     0.459806     0.025491    Uiso  ? O
   O46        1.0     0.077047     0.540194     0.525491    Uiso  ? O
   O47        1.0     0.126693     0.246470     0.922342    Uiso  ? O
   O47        1.0     0.126693     0.753530     0.422342    Uiso  ? O
   O48        1.0     0.958502     0.244154     0.872261    Uiso  ? O
   O48        1.0     0.958502     0.755846     0.372261    Uiso  ? O
   O49        1.0     0.077183     0.085355     0.051126    Uiso  ? O
   O49        1.0     0.077183     0.914645     0.551126    Uiso  ? O
   O50        1.0     0.164941     0.272911     0.175782    Uiso  ? O
   O50        1.0     0.164941     0.727089     0.675782    Uiso  ? O
   O51        1.0     0.265658     0.250864     0.162039    Uiso  ? O
   O51        1.0     0.265658     0.749136     0.662039    Uiso  ? O
   O52        1.0     0.357342     0.060924     0.210876    Uiso  ? O
   O52        1.0     0.357342     0.939076     0.710876    Uiso  ? O
   O53        1.0     0.347702     0.249831     0.390287    Uiso  ? O
   O53        1.0     0.347702     0.750169     0.890287    Uiso  ? O
   O54        1.0     0.357547     0.442031     0.212733    Uiso  ? O
   O54        1.0     0.357547     0.557969     0.712733    Uiso  ? O
   O55        1.0     0.483220     0.248738     0.399627    Uiso  ? O
   O55        1.0     0.483220     0.751262     0.899627    Uiso  ? O
   O56        1.0     0.572643     0.060526     0.423703    Uiso  ? O
   O56        1.0     0.572643     0.939474     0.923703    Uiso  ? O
   O57        1.0     0.576514     0.249282     0.614774    Uiso  ? O
   O57        1.0     0.576514     0.750718     0.114774    Uiso  ? O
   O58        1.0     0.571671     0.439376     0.422534    Uiso  ? O
   O58        1.0     0.571671     0.560624     0.922534    Uiso  ? O
   O59        1.0     0.834558     0.248154     0.736700    Uiso  ? O
   O59        1.0     0.834558     0.751846     0.236700    Uiso  ? O
   O60        1.0     0.384483     0.246577     0.976541    Uiso  ? O
   O60        1.0     0.384483     0.753423     0.476541    Uiso  ? O
   O61        1.0     0.466220     0.249624     0.917319    Uiso  ? O
   O61        1.0     0.466220     0.750376     0.417319    Uiso  ? O
   O62        1.0     0.473706     0.060171     0.114365    Uiso  ? O
   O62        1.0     0.473706     0.939829     0.614365    Uiso  ? O
   O63        1.0     0.472445     0.442152     0.112400    Uiso  ? O
   O63        1.0     0.472445     0.557848     0.612400    Uiso  ? O
   O64        1.0     0.592440     0.250516     0.167937    Uiso  ? O
   O64        1.0     0.592440     0.749484     0.667937    Uiso  ? O
   O65        1.0     0.683626     0.064458     0.205359    Uiso  ? O
   O65        1.0     0.683626     0.935542     0.705359    Uiso  ? O
   O66        1.0     0.676113     0.247748     0.387841    Uiso  ? O
   O66        1.0     0.676113     0.752252     0.887841    Uiso  ? O
   O67        1.0     0.682693     0.442731     0.206709    Uiso  ? O
   O67        1.0     0.682693     0.557269     0.706709    Uiso  ? O
   O68        1.0     0.806349     0.261191     0.394210    Uiso  ? O
   O68        1.0     0.806349     0.738809     0.894210    Uiso  ? O
   O69        1.0     0.893253     0.456761     0.417288    Uiso  ? O
   O69        1.0     0.893253     0.543239     0.917288    Uiso  ? O
   O70        1.0     0.162978     0.241470     0.722571    Uiso  ? O
   O70        1.0     0.162978     0.758530     0.222571    Uiso  ? O
   O71        1.0     0.903949     0.251328     0.604999    Uiso  ? O
   O71        1.0     0.903949     0.748672     0.104999    Uiso  ? O
   O72        1.0     0.887770     0.070221     0.397780    Uiso  ? O
   O72        1.0     0.887770     0.929779     0.897780    Uiso  ? O
   O73        1.0     0.759487     0.437255     0.064653    Uiso  ? O
   O73        1.0     0.759487     0.562745     0.564653    Uiso  ? O
   O74        1.0     0.774701     0.245167     0.891330    Uiso  ? O
   O74        1.0     0.774701     0.754833     0.391330    Uiso  ? O
   O75        1.0     0.763195     0.063747     0.068907    Uiso  ? O
   O75        1.0     0.763195     0.936253     0.568907    Uiso  ? O
   O76        1.0     0.853780     0.263395     0.113981    Uiso  ? O
   O76        1.0     0.853780     0.736605     0.613981    Uiso  ? O
   O77        1.0     0.389912     0.249585     0.634649    Uiso  ? O
   O77        1.0     0.389912     0.750415     0.134649    Uiso  ? O
   O78        1.0     0.282642     0.241955     0.864009    Uiso  ? O
   O78        1.0     0.282642     0.758045     0.364009    Uiso  ? O
   O79        1.0     0.632921     0.250907     0.882328    Uiso  ? O
   O79        1.0     0.632921     0.749093     0.382328    Uiso  ? O
   O80        1.0     0.716337     0.247283     0.633226    Uiso  ? O
   O80        1.0     0.716337     0.752717     0.133226    Uiso  ? O
   O81        1.0     0.508874     0.249544     0.753879    Uiso  ? O
   O81        1.0     0.508874     0.750456     0.253879    Uiso  ? O
