
#======================================================================
# CRYSTAL DATA
#----------------------------------------------------------------------
data_VESTA_phase_1

_chemical_name_common                  'OPT_STEP_1'
_cell_length_a                         12.227407
_cell_length_b                         7.108991
_cell_length_c                         9.170282
_cell_angle_alpha                      90.000000
_cell_angle_beta                       115.859100
_cell_angle_gamma                      90.000000
_cell_volume                           717.306106
_space_group_name_H-M_alt              'P 1'
_space_group_IT_number                 1

loop_
_space_group_symop_operation_xyz
   'x, y, z'

loop_
   _atom_site_label
   _atom_site_occupancy
   _atom_site_fract_x
   _atom_site_fract_y
   _atom_site_fract_z
   _atom_site_adp_type
   _atom_site_U_iso_or_equiv
   _atom_site_type_symbol
   CA1        1.0     0.271216     0.000000     0.294809    Uiso  ? Ca
   CA1        1.0     0.771216     0.500000     0.294809    Uiso  ? Ca
   CA2        1.0     0.006924     0.251972     0.343209    Uiso  ? Ca
   CA2        1.0     0.006924     0.748028     0.343209    Uiso  ? Ca
   CA2        1.0     0.506924     0.751972     0.343209    Uiso  ? Ca
   CA2        1.0     0.506924     0.248028     0.343209    Uiso  ? Ca
   CA3        1.0     0.979072     0.736383     0.704446    Uiso  ? Ca
   CA3        1.0     0.979072     0.263617     0.704446    Uiso  ? Ca
   CA3        1.0     0.479072     0.236383     0.704446    Uiso  ? Ca
   CA3        1.0     0.479072     0.763617     0.704446    Uiso  ? Ca
   CA4        1.0     0.766823     0.761965     0.987974    Uiso  ? Ca
   CA4        1.0     0.766823     0.238035     0.987974    Uiso  ? Ca
   CA4        1.0     0.266823     0.261965     0.987974    Uiso  ? Ca
   CA4        1.0     0.266823     0.738035     0.987974    Uiso  ? Ca
   CA5        1.0     0.684045     0.000000     0.647340    Uiso  ? Ca
   CA5        1.0     0.184045     0.500000     0.647340    Uiso  ? Ca
   CA6        1.0     0.043061     0.500000     0.041503    Uiso  ? Ca
   CA6        1.0     0.543061     0.000000     0.041503    Uiso  ? Ca
   SI7        1.0     0.792011     0.000000     0.356680    Uiso  ? Si
   SI7        1.0     0.292011     0.500000     0.356680    Uiso  ? Si
   SI8        1.0     0.215915     0.000000     0.649119    Uiso  ? Si
   SI8        1.0     0.715915     0.500000     0.649119    Uiso  ? Si
   SI9        1.0     0.997171     0.000000     0.990886    Uiso  ? Si
   SI9        1.0     0.497171     0.500000     0.990886    Uiso  ? Si
   O10        1.0     0.917994     0.000000     0.525917    Uiso  ? O
   O10        1.0     0.417994     0.500000     0.525917    Uiso  ? O
   O11        1.0     0.866163     0.500000     0.755009    Uiso  ? O
   O11        1.0     0.366163     0.000000     0.755009    Uiso  ? O
   O12        1.0     0.163636     0.190721     0.699295    Uiso  ? O
   O12        1.0     0.163636     0.809279     0.699295    Uiso  ? O
   O12        1.0     0.663636     0.690721     0.699295    Uiso  ? O
   O12        1.0     0.663636     0.309279     0.699295    Uiso  ? O
   O13        1.0     0.881964     0.000000     0.810035    Uiso  ? O
   O13        1.0     0.381964     0.500000     0.810035    Uiso  ? O
   O14        1.0     0.163917     0.000000     0.447797    Uiso  ? O
   O14        1.0     0.663917     0.500000     0.447797    Uiso  ? O
   O15        1.0     0.470562     0.000000     0.496694    Uiso  ? O
   O15        1.0     0.970562     0.500000     0.496694    Uiso  ? O
   O16        1.0     0.297323     0.690400     0.257573    Uiso  ? O
   O16        1.0     0.297323     0.309600     0.257573    Uiso  ? O
   O16        1.0     0.797323     0.190400     0.257573    Uiso  ? O
   O16        1.0     0.797323     0.809600     0.257573    Uiso  ? O
   O17        1.0     0.159239     0.500000     0.369891    Uiso  ? O
   O17        1.0     0.659239     0.000000     0.369891    Uiso  ? O
   O18        1.0     0.634371     0.000000     0.866267    Uiso  ? O
   O18        1.0     0.134371     0.500000     0.866267    Uiso  ? O
   O19        1.0     0.080155     0.812971     0.006756    Uiso  ? O
   O19        1.0     0.080155     0.187029     0.006756    Uiso  ? O
   O19        1.0     0.580155     0.312971     0.006756    Uiso  ? O
   O19        1.0     0.580155     0.687029     0.006756    Uiso  ? O
   O20        1.0     0.890190     0.500000     0.125173    Uiso  ? O
   O20        1.0     0.390190     0.000000     0.125173    Uiso  ? O
   O21        1.0     0.940814     0.000000     0.125776    Uiso  ? O
   O21        1.0     0.440814     0.500000     0.125776    Uiso  ? O
