
#======================================================================
# CRYSTAL DATA
#----------------------------------------------------------------------
data_VESTA_phase_1

_chemical_name_common                  'OPT_STEP_2'
_cell_length_a                         7.052546
_cell_length_b                         7.052546
_cell_length_c                         25.408419
_cell_angle_alpha                      90.000000
_cell_angle_beta                       90.000000
_cell_angle_gamma                      120.000000
_cell_volume                           1094.460438
_space_group_name_H-M_alt              'R 3 m'
_space_group_IT_number                 160

loop_
_space_group_symop_operation_xyz
   'x, y, z'
   '-y, x-y, z'
   '-x+y, -x, z'
   '-y, -x, z'
   '-x+y, y, z'
   'x, x-y, z'
   'x+2/3, y+1/3, z+1/3'
   '-y+2/3, x-y+1/3, z+1/3'
   '-x+y+2/3, -x+1/3, z+1/3'
   '-y+2/3, -x+1/3, z+1/3'
   '-x+y+2/3, y+1/3, z+1/3'
   'x+2/3, x-y+1/3, z+1/3'
   'x+1/3, y+2/3, z+2/3'
   '-y+1/3, x-y+2/3, z+2/3'
   '-x+y+1/3, -x+2/3, z+2/3'
   '-y+1/3, -x+2/3, z+2/3'
   '-x+y+1/3, y+2/3, z+2/3'
   'x+1/3, x-y+2/3, z+2/3'

loop_
   _atom_site_label
   _atom_site_occupancy
   _atom_site_fract_x
   _atom_site_fract_y
   _atom_site_fract_z
   _atom_site_adp_type
   _atom_site_U_iso_or_equiv
   _atom_site_type_symbol
   CA1        1.0     0.492239    -0.492239     0.003021    Uiso  ? Ca
   CA2        1.0     0.175951    -0.175951    -0.116647    Uiso  ? Ca
   CA3        1.0     0.158843    -0.158843     0.104045    Uiso  ? Ca
   SI4        1.0     0.000000     0.000000    -0.011412    Uiso  ? Si
   SI5        1.0    -0.333333     0.333333    -0.110707    Uiso  ? Si
   SI6        1.0    -0.333333     0.333333     0.100799    Uiso  ? Si
   O7         1.0     0.000000     0.000000    -0.168837    Uiso  ? O
   O8         1.0     0.333333    -0.333333     0.069812    Uiso  ? O
   O9         1.0     0.000000     0.000000     0.150355    Uiso  ? O
   O10        1.0     0.000000     0.000000    -0.075666    Uiso  ? O
   O11        1.0     0.333333    -0.333333    -0.058593    Uiso  ? O
   O12        1.0    -0.333333     0.333333    -0.044324    Uiso  ? O
   O13        1.0    -0.207089     0.207089     0.077053    Uiso  ? O
   O14        1.0    -0.460117     0.460117    -0.133246    Uiso  ? O
   O15        1.0     0.128753    -0.128753     0.007576    Uiso  ? O
