
#======================================================================
# CRYSTAL DATA
#----------------------------------------------------------------------
data_VESTA_phase_1

_chemical_name_common                  'OPT_STEP_1'
_cell_length_a                         9.205688
_cell_length_b                         7.123044
_cell_length_c                         12.100950
_cell_angle_alpha                      90.000000
_cell_angle_beta                       116.159027
_cell_angle_gamma                      90.000000
_cell_volume                           712.215755
_space_group_name_H-M_alt              'P 1'
_space_group_IT_number                 1

loop_
_space_group_symop_operation_xyz
   'x, y, z'

loop_
   _atom_site_label
   _atom_site_occupancy
   _atom_site_fract_x
   _atom_site_fract_y
   _atom_site_fract_z
   _atom_site_adp_type
   _atom_site_U_iso_or_equiv
   _atom_site_type_symbol
   CA1        1.0     0.985564     0.988652     0.024814    Uiso  ? Ca
   CA1        1.0     0.985564     0.011348     0.524814    Uiso  ? Ca
   CA2        1.0     0.985562     0.511379     0.024822    Uiso  ? Ca
   CA2        1.0     0.985562     0.488621     0.524822    Uiso  ? Ca
   CA3        1.0     0.347877     0.489217     0.758928    Uiso  ? Ca
   CA3        1.0     0.347877     0.510783     0.258928    Uiso  ? Ca
   CA4        1.0     0.347916     0.010758     0.758948    Uiso  ? Ca
   CA4        1.0     0.347916     0.989242     0.258948    Uiso  ? Ca
   CA5        1.0     0.657645     0.749976     0.438544    Uiso  ? Ca
   CA5        1.0     0.657645     0.250024     0.938544    Uiso  ? Ca
   CA6        1.0     0.058971     0.750032     0.295153    Uiso  ? Ca
   CA6        1.0     0.058971     0.249968     0.795153    Uiso  ? Ca
   CA7        1.0     0.287621     0.750016     0.017215    Uiso  ? Ca
   CA7        1.0     0.287621     0.249984     0.517215    Uiso  ? Ca
   CA8        1.0     0.697528     0.486293     0.727563    Uiso  ? Ca
   CA8        1.0     0.697528     0.513707     0.227563    Uiso  ? Ca
   CA9        1.0     0.697558     0.013731     0.727577    Uiso  ? Ca
   CA9        1.0     0.697558     0.986269     0.227577    Uiso  ? Ca
   SI10       1.0     0.993185     0.250015     0.254131    Uiso  ? Si
   SI10       1.0     0.993185     0.749985     0.754131    Uiso  ? Si
   SI11       1.0     0.645590     0.249974     0.464602    Uiso  ? Si
   SI11       1.0     0.645590     0.750026     0.964602    Uiso  ? Si
   SI12       1.0     0.348547     0.250014     0.040519    Uiso  ? Si
   SI12       1.0     0.348547     0.749986     0.540519    Uiso  ? Si
   O13        1.0     0.882323     0.749994     0.385758    Uiso  ? O
   O13        1.0     0.882323     0.250006     0.885758    Uiso  ? O
   O14        1.0     0.156069     0.750022     0.146532    Uiso  ? O
   O14        1.0     0.156069     0.249978     0.646532    Uiso  ? O
   O15        1.0     0.507779     0.749996     0.219105    Uiso  ? O
   O15        1.0     0.507779     0.250004     0.719105    Uiso  ? O
   O16        1.0     0.805514     0.250023     0.143430    Uiso  ? O
   O16        1.0     0.805514     0.749977     0.643430    Uiso  ? O
   O17        1.0     0.087912     0.438401     0.241945    Uiso  ? O
   O17        1.0     0.087912     0.561599     0.741945    Uiso  ? O
   O18        1.0     0.978729     0.249985     0.385088    Uiso  ? O
   O18        1.0     0.978729     0.750015     0.885088    Uiso  ? O
   O19        1.0     0.087929     0.061664     0.241923    Uiso  ? O
   O19        1.0     0.087929     0.938336     0.741923    Uiso  ? O
   O20        1.0     0.446397     0.249976     0.414969    Uiso  ? O
   O20        1.0     0.446397     0.750024     0.914969    Uiso  ? O
   O21        1.0     0.692643     0.443947     0.412783    Uiso  ? O
   O21        1.0     0.692643     0.556053     0.912783    Uiso  ? O
   O22        1.0     0.763833     0.249971     0.616250    Uiso  ? O
   O22        1.0     0.763833     0.750029     0.116250    Uiso  ? O
   O23        1.0     0.692639     0.055997     0.412783    Uiso  ? O
   O23        1.0     0.692639     0.944003     0.912783    Uiso  ? O
   O24        1.0     0.238181     0.064008     0.034190    Uiso  ? O
   O24        1.0     0.238181     0.935992     0.534190    Uiso  ? O
   O25        1.0     0.387627     0.250018     0.918122    Uiso  ? O
   O25        1.0     0.387627     0.749982     0.418122    Uiso  ? O
   O26        1.0     0.238206     0.436031     0.034217    Uiso  ? O
   O26        1.0     0.238206     0.563969     0.534217    Uiso  ? O
   O27        1.0     0.508046     0.249998     0.175040    Uiso  ? O
   O27        1.0     0.508046     0.750002     0.675040    Uiso  ? O
